power-flow-agent/results/ieee14/2026-09-23/gpt-5.6-sol/plan_act_nogate__matched/traces/12_case14-multistep-006-s0.transcript.txt
==============================================================================
TRANSCRIPT  plan_act_nogate  |  openrouter:openai/gpt-5.6-sol  |  case14  |  case14-multistep-006-s0  run 0
==============================================================================
date: 2026-09-23   seed: 0   difficulty: multistep   tool variant: load_split

[system]   (hash 7da5e2a37ec4, from methods/plan_act_nogate/method.json prompt_files)
You are a power system power-flow analysis assistant. You help the user complete power system analysis tasks from natural-language requests.

## What you can do
You complete tasks by calling tool functions:
1. Load an IEEE standard test system (14, 30, 57, 118, 300 buses)
2. Run AC power flow
3. Modify the load at a bus and re-solve
4. Disconnect or reconnect a line and re-solve
5. Query the network status
6. Run an N-1 contingency analysis (disconnect branches one at a time and rank the worst cases)
7. Generate remedial-action suggestions (what-if load shedding or voltage adjustment) to reduce violation risk

## Key rules
- Never fabricate any numerical result. Every voltage, power, loss, or loading value must come from a tool return value.
- If a tool reports an error or a non-converged power flow, say so explicitly and do not report numbers for that state.
- If the request is ambiguous, state the interpretation you are using.
- Bus and line identifiers in the request are MATPOWER 1-based ids; pass them to the tools as given, unless the request itself states a different indexing convention for that identifier (e.g. "(0-based)"), in which case convert it to the MATPOWER 1-based id before calling any tool.
- After a network modification, re-solve before reporting any value.
- Always reply in English.

## Reply format
After each analysis, reply in this structure:
1. One-sentence summary
2. Key numbers (total load, total generation, total losses, voltage range) taken from the tool outputs
3. Violations, if any
4. Suggested next step

[user]   (complete message, stored at run time)
Load the 14-bus test case (case14), set the active load at bus 4 to 42.7 MW, disconnect the line between bus 3 and bus 4, reconnect the line between bus 3 and bus 4, and finally rerun the power flow, then list every line whose loading is above 80%.

[tools available to the model]   (function-calling schema, --tool-variant load_split; enum values and defaults as sent)
  load_case(case_name: string* in {case14, case30, case57, case118, case300})  Load IEEE test case.
  run_powerflow()  Run power flow on current case.
  disconnect_line(from_bus: integer*, to_bus: integer*)  Disconnect line/branch between two buses and recompute.
  reconnect_line(from_bus: integer*, to_bus: integer*)  Reconnect line/branch between two buses and recompute.
  get_most_loaded_branch()  Get most loaded branch.
  run_n1_contingency(top_k: integer (default 5), criteria: string in {max_violations, max_overload, min_voltage} (default max_violations), max_candidates: integer (default 0))  Run N-1 contingency analysis.
  recommend_remedial_actions(max_actions: integer (default 5), allow_load_shed: boolean (default True), allow_voltage_control: boolean (default True), include_best_comparison: boolean (default True))  Recommend remedial actions.
  apply_remedial_action(action_index: integer*, confirmed: boolean (default False))  Apply one remedial action by index.
  get_status()  Get current network status.
  generate_plot(plot_type: string* in {voltage_heatmap, flow_diagram, violation_overview, comparison})  Generate one plot.
  set_active_load(bus_id: integer*, p_mw: number*)  Set a bus's active load (MW) and recompute. Use this when the request states only an active-power value. This tool has no reactive-power argument: the bus's present reactive load is always left unchanged. If the request also states a reactive-power value, use set_load instead.
  set_load(bus_id: integer*, p_mw: number*, q_mvar: number*)  Set a bus's active and reactive load (MW, Mvar) and recompute. Use this only when the request states both values. If the request states only an active-power value, use set_active_load instead -- do not invent a reactive-power value here to fill this in.

[planner system prompt]   (hash 76ea681e520a; as assembled today from methods/plan_act; the planning call sends this plus the request)
You are the planner of a power-system analysis agent. You cannot call tools yourself. Given the user's request, output ONLY a JSON object of the form
{"plan": [{"tool": "<tool_name>", "args": {...}}, ...]}
listing, in execution order, every tool call needed to answer the request. Use only the tools below with exactly these argument names (* = required); where an argument lists allowed values, use one of them verbatim. Bus and line identifiers in the request are MATPOWER 1-based ids; pass them to the tools as given, unless the request itself states a different indexing convention for that identifier (e.g. "(0-based)"), in which case convert it to the MATPOWER 1-based id. Do not include explanations, markdown, or any text outside the JSON.

Available tools:
- load_case(case_name: string in {case14, case30, case57, case118, case300}*): Load IEEE test case.
- run_powerflow((none)): Run power flow on current case.
- disconnect_line(from_bus: integer*, to_bus: integer*): Disconnect line/branch between two buses and recompute.
- reconnect_line(from_bus: integer*, to_bus: integer*): Reconnect line/branch between two buses and recompute.
- get_most_loaded_branch((none)): Get most loaded branch.
- run_n1_contingency(top_k: integer, criteria: string in {max_violations, max_overload, min_voltage}, max_candidates: integer): Run N-1 contingency analysis.
- recommend_remedial_actions(max_actions: integer, allow_load_shed: boolean, allow_voltage_control: boolean, include_best_comparison: boolean): Recommend remedial actions.
- apply_remedial_action(action_index: integer*, confirmed: boolean): Apply one remedial action by index.
- get_status((none)): Get current network status.
- generate_plot(plot_type: string in {voltage_heatmap, flow_diagram, violation_overview, comparison}*): Generate one plot.
- set_active_load(bus_id: integer*, p_mw: number*): Set a bus's active load (MW) and recompute. Use this when the request states only an active-power value. This tool has no reactive-power argument: the bus's present reactive load is always left unchanged. If the request also states a reactive-power value, use set_load instead.
- set_load(bus_id: integer*, p_mw: number*, q_mvar: number*): Set a bus's active and reactive load (MW, Mvar) and recompute. Use this only when the request states both values. If the request states only an active-power value, use set_active_load instead -- do not invent a reactive-power value here to fill this in.

[planner output]
[
 {
  "tool": "load_case",
  "args": {
   "case_name": "case14"
  }
 },
 {
  "tool": "set_active_load",
  "args": {
   "bus_id": 4,
   "p_mw": 42.7
  }
 },
 {
  "tool": "disconnect_line",
  "args": {
   "from_bus": 3,
   "to_bus": 4
  }
 },
 {
  "tool": "reconnect_line",
  "args": {
   "from_bus": 3,
   "to_bus": 4
  }
 },
 {
  "tool": "run_powerflow",
  "args": {}
 },
 {
  "tool": "get_status",
  "args": {}
 }
]

--- round 1 ---
[assistant]   (650 in / 232 out tokens, 7.1 s)
{"plan":[{"tool":"load_case","args":{"case_name":"case14"}},{"tool":"set_active_load","args":{"bus_id":4,"p_mw":42.7}},{"tool":"disconnect_line","args":{"from_bus":3,"to_bus":4}},{"tool":"reconnect_line","args":{"from_bus":3,"to_bus":4}},{"tool":"run_powerflow","args":{}},{"tool":"get_status","args":{}}]}

--- round 2 ---
[tool load_case]   (gate: not applied)
{"case_name": "case14", "n_buses": 14, "n_generators": 5, "n_lines": 20, "n_loads": 11, "total_load_mw": 251.83093927460206, "total_gen_capacity_mw": 772.4000000000001}
[tool set_active_load]   (gate: pass)
{"case_name": "case14", "converged": true, "bus_voltages": [{"bus_id": 1, "vm_pu": 1.06, "va_deg": 0.0, "is_violation": true, "violation_type": "overvoltage"}, {"bus_id": 2, "vm_pu": 1.0450000000000002, "va_deg": -4.656475614052621, "is_violation": false, "violation_type": null}, {"bus_id": 3, "vm_pu": 1.0099999999999998, "va_deg": -11.79700603396569, "is_violation": false, "violation_type": null}, {"bus_id": 4, "vm_pu": 1.0186120399236038, "va_deg": -9.72106082021397, "is_violation": false, "violation_type": null}, {"bus_id": 5, "vm_pu": 1.0201609247434607, "va_deg": -8.316471078493505, "is_violation": false, "violation_type": null}, {"bus_id": 6, "vm_pu": 1.07, "va_deg": -13.75189614058688, "is_violation": true, "violation_type": "overvoltage"}, {"bus_id": 7, "vm_pu": 1.062292497163149, "va_deg": -12.770256076115013, "is_violation": true, "violation_type": "overvoltage"}, {"bus_id": 8, "vm_pu": 1.09, "va_deg": -12.770256076115007, "is_violation": true, "violation_type": "overvoltage"}, {"bus_id": 9, "vm_pu": 1.0570907106261187, "va_deg": -14.35015586045095, "is_violation": true, "violation_type": "overvoltage"}, {"bus_id": 10, "vm_pu": 1.0518906919056101, "va_deg": -14.533564664803988, "is_violation": true, "violation_type": "overvoltage"}, {"bus_id": 11, "vm_pu": 1.057231194567899, "va_deg": -14.281085453043554, "is_violation": true, "violation_type": "overvoltage"}, {"bus_id": 12, "vm_pu": 1.0551555738165002, "va_deg": -14.600180443105234, "is_violation": true, "violation_type": "overvoltage"}, {"bus_id": 13, "vm_pu": 1.05098445193329, "va_deg": -14.656153044784348, "is_violation": true, "violation_type": "overvoltage"}, {"bus_id": 14, "vm_pu": 1.0364187258153368, "va_deg": -15.484610236318314, "is_violation": false, "violation_type": null}], "line_flows": [{"line_id": 0, "from_bus": 1, "to_bus": 2, "p_from_mw": 147.02911419136527, "q_from_mvar": -18.072109211772222, "loading_percent": 1.4116220581260828, "is_violation": false}, {"line_id": 1, "from_bus": 1, "to_bus": 5, "p_from_mw": 71.73834134202824, "q_from_mvar": 3.8897357958073453, "loading_percent": 0.6856801700425976, "is_violation": false}, {"line_id": 2, "from_bus": 2, "to_bus": 3, "p_from_mw": 67.81658526769043, "q_from_mvar": 4.121465894741861, "loading_percent": 0.6582676006378552, "is_violation": false}, {"line_id": 3, "from_bus": 2, "to_bus": 4, "p_from_mw": 53.42257132894501, "q_from_mvar": -1.4666037683947557, "loading_percent": 0.5165791773280879, "is_violation": false}, {"line_id": 4, "from_bus": 2, "to_bus": 5, "p_from_mw": 40.13175359722621, "q_from_mvar": 1.1451412917454151, "loading_percent": 0.3896368448588951, "is_violation": false}, {"line_id": 5, "from_bus": 3, "to_bus": 4, "p_from_mw": -20.483471514549052, "q_from_mvar": 2.6816530044908764, "loading_percent": 0.20847617835532312, "is_violation": false}, {"line_id": 6, "from_bus": 4, "to_bus": 5, "p_from_mw": -55.83032656727834, "q_from_mvar": 14.694536563275488, "loading_percent": 0.5724936978358405, "is_violation": false}, {"line_id": 7, "from_bus": 6, "to_bus": 11, "p_from_mw": 6.95803145514946, "q_from_mvar": 3.5707056609378194, "loading_percent": 0.07382942173874119, "is_violation": false}, {"line_id": 8, "from_bus": 6, "to_bus": 12, "p_from_mw": 7.751242729169351, "q_from_mvar": 2.533216324823076, "loading_percent": 0.07698186313010713, "is_violation": false}, {"line_id": 9, "from_bus": 6, "to_bus": 13, "p_from_mw": 17.179392026726287, "q_from_mvar": 7.00277686946708, "loading_percent": 0.1751329174412317, "is_violation": false}, {"line_id": 10, "from_bus": 9, "to_bus": 10, "p_from_mw": 5.836620135324171, "q_from_mvar": 4.314745133194633, "loading_percent": 0.06935670587825292, "is_violation": false}, {"line_id": 11, "from_bus": 9, "to_bus": 14, "p_from_mw": 9.71271369300693, "q_from_mvar": 3.595340713802791, "loading_percent": 0.09896419352245292, "is_violation": false}, {"line_id": 12, "from_bus": 10, "to_bus": 11, "p_from_mw": -3.2122510820526378, "q_from_mvar": -1.546923366643187, "loading_percent": 0.0342367938779441, "is_violation": false}, {"line_id": 13, "from_bus": 12, "to_bus": 13, "p_from_mw": 1.3395627258811187, "q_from_mvar": 0.7216078106444452, "loading_percent": 0.014565906308355511, "is_violation": false}, {"line_id": 14, "from_bus": 13, "to_bus": 14, "p_from_mw": 5.399424181496809, "q_from_mvar": 1.779489846284181, "loading_percent": 0.05463949120571383, "is_violation": false}, {"line_id": 100000, "from_bus": 4, "to_bus": 7, "p_from_mw": 28.143368410882697, "q_from_mvar": -9.59393505692784, "loading_percent": 0.2948525723605106, "is_violation": false}, {"line_id": 100001, "from_bus": 4, "to_bus": 9, "p_from_mw": 16.12437176313527, "q_from_mvar": -0.4617903734203188, "loading_percent": 0.1599620038218758, "is_violation": false}, {"line_id": 100002, "from_bus": 5, "to_bus": 6, "p_from_mw": 44.02109252961879, "q_from_mvar": 12.771164131522085, "loading_percent": 0.45384225887234325, "is_violation": false}, {"line_id": 100003, "from_bus": 7, "to_bus": 8, "p_from_mw": -5.1813588543616646e-14, "q_from_mvar": -16.70932295129911, "loading_percent": 0.15888377293715417, "is_violation": false}, {"line_id": 100004, "from_bus": 7, "to_bus": 9, "p_from_mw": 28.14336841051141, "q_from_mvar": 5.411058591574555, "loading_percent": 0.27250796552431933, "is_violation": false}], "total_generation_mw": 259.6073704789311, "total_load_mw": 247.74885550811788, "total_loss_mw": 11.858514975572978, "voltage_violations": [{"bus_id": 1, "vm_pu": 1.06, "va_deg": 0.0, "is_violation": true, "violation_type": "overvoltage"}, {"bus_id": 6, "vm_pu": 1.07, "va_deg": -13.75189614058688, "is_violation": true, "violation_type": "overvoltage"}, {"bus_id": 7, "vm_pu": 1.062292497163149, "va_deg": -12.770256076115013, "is_violation": true, "violation_type": "overvoltage"}, {"bus_id": 8, "vm_pu": 1.09, "va_deg": -12.770256076115007, "is_violation": true, "violation_type": "overvoltage"}, {"bus_id": 9, "vm_pu": 1.0570907106261187, "va_deg": -14.35015586045095, "is_violation": true, "violation_type": "overvoltage"}, {"bus_id": 10, "vm_pu": 1.0518906919056101, "va_deg": -14.533564664803988, "is_violation": true, "violation_type": "overvoltage"}, {"bus_id": 11, "vm_pu": 1.057231194567899, "va_deg": -14.281085453043554, "is_violation": true, "violation_type": "overvoltage"}, {"bus_id": 12, "vm_pu": 1.0551555738165002, "va_deg": -14.600180443105234, "is_violation": true, "violation_type": "overvoltage"}, {"bus_id": 13, "vm_pu": 1.05098445193329, "va_deg": -14.656153044784348, "is_violation": true, "violation_type": "overvoltage"}], "thermal_violations": [], "summary_text": "", "solver_backend": "pandapower", "llm_prompt": null, "llm_response": null, "resolved_bus_id": 4, "assumption": "reactive load at this bus is unchanged from its present value"}
[tool disconnect_line]   (gate: pass)
{"case_name": "case14", "converged": true, "bus_voltages": [{"bus_id": 1, "vm_pu": 1.06, "va_deg": 0.0, "is_violation": true, "violation_type": "overvoltage"}, {"bus_id": 2, "vm_pu": 1.045, "va_deg": -4.817570053999097, "is_violation": false, "violation_type": null}, {"bus_id": 3, "vm_pu": 1.01, "va_deg": -14.393539957334314, "is_violation": false, "violation_type": null}, {"bus_id": 4, "vm_pu": 1.0213964483294697, "va_deg": -8.89703765147493, "is_violation": false, "violation_type": null}, {"bus_id": 5, "vm_pu": 1.0222489283362057, "va_deg": -7.757325430887554, "is_violation": false, "violation_type": null}, {"bus_id": 6, "vm_pu": 1.07, "va_deg": -13.086849368381984, "is_violation": true, "violation_type": "overvoltage"}, {"bus_id": 7, "vm_pu": 1.0636545086344917, "va_deg": -11.985274252998858, "is_violation": true, "violation_type": "overvoltage"}, {"bus_id": 8, "vm_pu": 1.0900000000000003, "va_deg": -11.985274252998858, "is_violation": true, "violation_type": "overvoltage"}, {"bus_id": 9, "vm_pu": 1.0585563063598007, "va_deg": -13.587541615101525, "is_violation": true, "violation_type": "overvoltage"}, {"bus_id": 10, "vm_pu": 1.0531286595884595, "va_deg": -13.788199784585675, "is_violation": true, "violation_type": "overvoltage"}, {"bus_id": 11, "vm_pu": 1.0578891434993174, "va_deg": -13.575875741603241, "is_violation": true, "violation_type": "overvoltage"}, {"bus_id": 12, "vm_pu": 1.0552485467386064, "va_deg": -13.927266242956474, "is_violation": true, "violation_type": "overvoltage"}, {"bus_id": 13, "vm_pu": 1.051222405460036, "va_deg": -13.977447850850027, "is_violation": true, "violation_type": "overvoltage"}, {"bus_id": 14, "vm_pu": 1.0373710919792103, "va_deg": -14.756757328409934, "is_violation": false, "violation_type": null}], "line_flows": [{"line_id": 0, "from_bus": 1, "to_bus": 2, "p_from_mw": 151.89505008352538, "q_from_mvar": -19.23117662892335, "loading_percent": 1.4590015586739673, "is_violation": false}, {"line_id": 1, "from_bus": 1, "to_bus": 5, "p_from_mw": 67.06323852914244, "q_from_mvar": 3.377499471124759, "loading_percent": 0.6411203104047307, "is_violation": false}, {"line_id": 2, "from_bus": 2, "to_bus": 3, "p_from_mw": 89.7803378062762, "q_from_mvar": 2.2020761852372734, "loading_percent": 0.8680811881708038, "is_violation": false}, {"line_id": 3, "from_bus": 2, "to_bus": 4, "p_from_mw": 43.46023101068052, "q_from_mvar": -0.6567509253204501, "loading_percent": 0.4201362233400805, "is_violation": false}, {"line_id": 4, "from_bus": 2, "to_bus": 5, "p_from_mw": 32.739123754140174, "q_from_mvar": 1.86956314247732, "loading_percent": 0.3201578910497047, "is_violation": false}, {"line_id": 5, "from_bus": 3, "to_bus": 4, "p_from_mw": 0.0, "q_from_mvar": 0.0, "loading_percent": 0.0, "is_violation": false}, {"line_id": 6, "from_bus": 4, "to_bus": 5, "p_from_mw": -45.26871694029105, "q_from_mvar": 12.774201684781378, "loading_percent": 0.465163805415279, "is_violation": false}, {"line_id": 7, "from_bus": 6, "to_bus": 11, "p_from_mw": 6.496849042341886, "q_from_mvar": 3.4334534821625344, "loading_percent": 0.06936948314273317, "is_violation": false}, {"line_id": 8, "from_bus": 6, "to_bus": 12, "p_from_mw": 7.686947669876426, "q_from_mvar": 2.524330907030801, "loading_percent": 0.07637895441299505, "is_violation": false}, {"line_id": 9, "from_bus": 6, "to_bus": 13, "p_from_mw": 16.938033511221974, "q_from_mvar": 6.926689068053473, "loading_percent": 0.1727519824480607, "is_violation": false}, {"line_id": 10, "from_bus": 9, "to_bus": 10, "p_from_mw": 6.291404480036938, "q_from_mvar": 4.43906561722035, "loading_percent": 0.07347352051066589, "is_violation": false}, {"line_id": 11, "from_bus": 9, "to_bus": 14, "p_from_mw": 10.01328726165914, "q_from_mvar": 3.6713107973713486, "loading_percent": 0.10176910123694896, "is_violation": false}, {"line_id": 12, "from_bus": 10, "to_bus": 11, "p_from_mw": -2.75929996116284, "q_from_mvar": -1.4274726535910076, "loading_percent": 0.029797433311343144, "is_violation": false}, {"line_id": 13, "from_bus": 12, "to_bus": 13, "p_from_mw": 1.2763815085776844, "q_from_mvar": 0.7150406087789463, "loading_percent": 0.014004281896262065, "is_violation": false}, {"line_id": 14, "from_bus": 13, "to_bus": 14, "p_from_mw": 5.10060198855783, "q_from_mvar": 1.7077246095695804, "loading_percent": 0.05168480799848842, "is_violation": false}, {"line_id": 100000, "from_bus": 4, "to_bus": 7, "p_from_mw": 28.617924360592006, "q_from_mvar": -8.85817589715361, "loading_percent": 0.29626223075687547, "is_violation": false}, {"line_id": 100001, "from_bus": 4, "to_bus": 9, "p_from_mw": 16.40517372672743, "q_from_mvar": -0.17785507661564945, "loading_percent": 0.1622470529271101, "is_violation": false}, {"line_id": 100002, "from_bus": 5, "to_bus": 6, "p_from_mw": 43.25425654221546, "q_from_mvar": 13.691600505257648, "loading_percent": 0.44830340755511167, "is_violation": false}, {"line_id": 100003, "from_bus": 7, "to_bus": 8, "p_from_mw": 1.0405330623110637e-16, "q_from_mvar": -15.908317157601045, "loading_percent": 0.1510735591252207, "is_violation": false}, {"line_id": 100004, "from_bus": 7, "to_bus": 9, "p_from_mw": 28.61792436025909, "q_from_mvar": 5.3294765722122035, "loading_percent": 0.2764430076711227, "is_violation": false}], "total_generation_mw": 259.79820355820533, "total_load_mw": 247.74885550811788, "total_loss_mw": 12.049348052454526, "voltage_violations": [{"bus_id": 1, "vm_pu": 1.06, "va_deg": 0.0, "is_violation": true, "violation_type": "overvoltage"}, {"bus_id": 6, "vm_pu": 1.07, "va_deg": -13.086849368381984, "is_violation": true, "violation_type": "overvoltage"}, {"bus_id": 7, "vm_pu": 1.0636545086344917, "va_deg": -11.985274252998858, "is_violation": true, "violation_type": "overvoltage"}, {"bus_id": 8, "vm_pu": 1.0900000000000003, "va_deg": -11.985274252998858, "is_violation": true, "violation_type": "overvoltage"}, {"bus_id": 9, "vm_pu": 1.0585563063598007, "va_deg": -13.587541615101525, "is_violation": true, "violation_type": "overvoltage"}, {"bus_id": 10, "vm_pu": 1.0531286595884595, "va_deg": -13.788199784585675, "is_violation": true, "violation_type": "overvoltage"}, {"bus_id": 11, "vm_pu": 1.0578891434993174, "va_deg": -13.575875741603241, "is_violation": true, "violation_type": "overvoltage"}, {"bus_id": 12, "vm_pu": 1.0552485467386064, "va_deg": -13.927266242956474, "is_violation": true, "violation_type": "overvoltage"}, {"bus_id": 13, "vm_pu": 1.051222405460036, "va_deg": -13.977447850850027, "is_violation": true, "violation_type": "overvoltage"}], "thermal_violations": [], "summary_text": "", "solver_backend": "pandapower", "llm_prompt": null, "llm_response": null}
[tool reconnect_line]   (gate: pass)
{"case_name": "case14", "converged": true, "bus_voltages": [{"bus_id": 1, "vm_pu": 1.06, "va_deg": 0.0, "is_violation": true, "violation_type": "overvoltage"}, {"bus_id": 2, "vm_pu": 1.0450000000000002, "va_deg": -4.656475614052621, "is_violation": false, "violation_type": null}, {"bus_id": 3, "vm_pu": 1.0099999999999998, "va_deg": -11.79700603396569, "is_violation": false, "violation_type": null}, {"bus_id": 4, "vm_pu": 1.0186120399236038, "va_deg": -9.72106082021397, "is_violation": false, "violation_type": null}, {"bus_id": 5, "vm_pu": 1.0201609247434607, "va_deg": -8.316471078493505, "is_violation": false, "violation_type": null}, {"bus_id": 6, "vm_pu": 1.07, "va_deg": -13.75189614058688, "is_violation": true, "violation_type": "overvoltage"}, {"bus_id": 7, "vm_pu": 1.062292497163149, "va_deg": -12.770256076115013, "is_violation": true, "violation_type": "overvoltage"}, {"bus_id": 8, "vm_pu": 1.09, "va_deg": -12.770256076115007, "is_violation": true, "violation_type": "overvoltage"}, {"bus_id": 9, "vm_pu": 1.0570907106261187, "va_deg": -14.35015586045095, "is_violation": true, "violation_type": "overvoltage"}, {"bus_id": 10, "vm_pu": 1.0518906919056101, "va_deg": -14.533564664803988, "is_violation": true, "violation_type": "overvoltage"}, {"bus_id": 11, "vm_pu": 1.057231194567899, "va_deg": -14.281085453043554, "is_violation": true, "violation_type": "overvoltage"}, {"bus_id": 12, "vm_pu": 1.0551555738165002, "va_deg": -14.600180443105234, "is_violation": true, "violation_type": "overvoltage"}, {"bus_id": 13, "vm_pu": 1.05098445193329, "va_deg": -14.656153044784348, "is_violation": true, "violation_type": "overvoltage"}, {"bus_id": 14, "vm_pu": 1.0364187258153368, "va_deg": -15.484610236318314, "is_violation": false, "violation_type": null}], "line_flows": [{"line_id": 0, "from_bus": 1, "to_bus": 2, "p_from_mw": 147.02911419136527, "q_from_mvar": -18.072109211772222, "loading_percent": 1.4116220581260828, "is_violation": false}, {"line_id": 1, "from_bus": 1, "to_bus": 5, "p_from_mw": 71.73834134202824, "q_from_mvar": 3.8897357958073453, "loading_percent": 0.6856801700425976, "is_violation": false}, {"line_id": 2, "from_bus": 2, "to_bus": 3, "p_from_mw": 67.81658526769043, "q_from_mvar": 4.121465894741861, "loading_percent": 0.6582676006378552, "is_violation": false}, {"line_id": 3, "from_bus": 2, "to_bus": 4, "p_from_mw": 53.42257132894501, "q_from_mvar": -1.4666037683947557, "loading_percent": 0.5165791773280879, "is_violation": false}, {"line_id": 4, "from_bus": 2, "to_bus": 5, "p_from_mw": 40.13175359722621, "q_from_mvar": 1.1451412917454151, "loading_percent": 0.3896368448588951, "is_violation": false}, {"line_id": 5, "from_bus": 3, "to_bus": 4, "p_from_mw": -20.483471514549052, "q_from_mvar": 2.6816530044908764, "loading_percent": 0.20847617835532312, "is_violation": false}, {"line_id": 6, "from_bus": 4, "to_bus": 5, "p_from_mw": -55.83032656727834, "q_from_mvar": 14.694536563275488, "loading_percent": 0.5724936978358405, "is_violation": false}, {"line_id": 7, "from_bus": 6, "to_bus": 11, "p_from_mw": 6.95803145514946, "q_from_mvar": 3.5707056609378194, "loading_percent": 0.07382942173874119, "is_violation": false}, {"line_id": 8, "from_bus": 6, "to_bus": 12, "p_from_mw": 7.751242729169351, "q_from_mvar": 2.533216324823076, "loading_percent": 0.07698186313010713, "is_violation": false}, {"line_id": 9, "from_bus": 6, "to_bus": 13, "p_from_mw": 17.179392026726287, "q_from_mvar": 7.00277686946708, "loading_percent": 0.1751329174412317, "is_violation": false}, {"line_id": 10, "from_bus": 9, "to_bus": 10, "p_from_mw": 5.836620135324171, "q_from_mvar": 4.314745133194633, "loading_percent": 0.06935670587825292, "is_violation": false}, {"line_id": 11, "from_bus": 9, "to_bus": 14, "p_from_mw": 9.71271369300693, "q_from_mvar": 3.595340713802791, "loading_percent": 0.09896419352245292, "is_violation": false}, {"line_id": 12, "from_bus": 10, "to_bus": 11, "p_from_mw": -3.2122510820526378, "q_from_mvar": -1.546923366643187, "loading_percent": 0.0342367938779441, "is_violation": false}, {"line_id": 13, "from_bus": 12, "to_bus": 13, "p_from_mw": 1.3395627258811187, "q_from_mvar": 0.7216078106444452, "loading_percent": 0.014565906308355511, "is_violation": false}, {"line_id": 14, "from_bus": 13, "to_bus": 14, "p_from_mw": 5.399424181496809, "q_from_mvar": 1.779489846284181, "loading_percent": 0.05463949120571383, "is_violation": false}, {"line_id": 100000, "from_bus": 4, "to_bus": 7, "p_from_mw": 28.143368410882697, "q_from_mvar": -9.59393505692784, "loading_percent": 0.2948525723605106, "is_violation": false}, {"line_id": 100001, "from_bus": 4, "to_bus": 9, "p_from_mw": 16.12437176313527, "q_from_mvar": -0.4617903734203188, "loading_percent": 0.1599620038218758, "is_violation": false}, {"line_id": 100002, "from_bus": 5, "to_bus": 6, "p_from_mw": 44.02109252961879, "q_from_mvar": 12.771164131522085, "loading_percent": 0.45384225887234325, "is_violation": false}, {"line_id": 100003, "from_bus": 7, "to_bus": 8, "p_from_mw": -5.1813588543616646e-14, "q_from_mvar": -16.70932295129911, "loading_percent": 0.15888377293715417, "is_violation": false}, {"line_id": 100004, "from_bus": 7, "to_bus": 9, "p_from_mw": 28.14336841051141, "q_from_mvar": 5.411058591574555, "loading_percent": 0.27250796552431933, "is_violation": false}], "total_generation_mw": 259.6073704789311, "total_load_mw": 247.74885550811788, "total_loss_mw": 11.858514975572978, "voltage_violations": [{"bus_id": 1, "vm_pu": 1.06, "va_deg": 0.0, "is_violation": true, "violation_type": "overvoltage"}, {"bus_id": 6, "vm_pu": 1.07, "va_deg": -13.75189614058688, "is_violation": true, "violation_type": "overvoltage"}, {"bus_id": 7, "vm_pu": 1.062292497163149, "va_deg": -12.770256076115013, "is_violation": true, "violation_type": "overvoltage"}, {"bus_id": 8, "vm_pu": 1.09, "va_deg": -12.770256076115007, "is_violation": true, "violation_type": "overvoltage"}, {"bus_id": 9, "vm_pu": 1.0570907106261187, "va_deg": -14.35015586045095, "is_violation": true, "violation_type": "overvoltage"}, {"bus_id": 10, "vm_pu": 1.0518906919056101, "va_deg": -14.533564664803988, "is_violation": true, "violation_type": "overvoltage"}, {"bus_id": 11, "vm_pu": 1.057231194567899, "va_deg": -14.281085453043554, "is_violation": true, "violation_type": "overvoltage"}, {"bus_id": 12, "vm_pu": 1.0551555738165002, "va_deg": -14.600180443105234, "is_violation": true, "violation_type": "overvoltage"}, {"bus_id": 13, "vm_pu": 1.05098445193329, "va_deg": -14.656153044784348, "is_violation": true, "violation_type": "overvoltage"}], "thermal_violations": [], "summary_text": "", "solver_backend": "pandapower", "llm_prompt": null, "llm_response": null}
[tool run_powerflow]   (gate: pass)
{"case_name": "case14", "converged": true, "bus_voltages": [{"bus_id": 1, "vm_pu": 1.06, "va_deg": 0.0, "is_violation": true, "violation_type": "overvoltage"}, {"bus_id": 2, "vm_pu": 1.0450000000000002, "va_deg": -4.656475614052621, "is_violation": false, "violation_type": null}, {"bus_id": 3, "vm_pu": 1.0099999999999998, "va_deg": -11.79700603396569, "is_violation": false, "violation_type": null}, {"bus_id": 4, "vm_pu": 1.0186120399236038, "va_deg": -9.72106082021397, "is_violation": false, "violation_type": null}, {"bus_id": 5, "vm_pu": 1.0201609247434607, "va_deg": -8.316471078493505, "is_violation": false, "violation_type": null}, {"bus_id": 6, "vm_pu": 1.07, "va_deg": -13.75189614058688, "is_violation": true, "violation_type": "overvoltage"}, {"bus_id": 7, "vm_pu": 1.062292497163149, "va_deg": -12.770256076115013, "is_violation": true, "violation_type": "overvoltage"}, {"bus_id": 8, "vm_pu": 1.09, "va_deg": -12.770256076115007, "is_violation": true, "violation_type": "overvoltage"}, {"bus_id": 9, "vm_pu": 1.0570907106261187, "va_deg": -14.35015586045095, "is_violation": true, "violation_type": "overvoltage"}, {"bus_id": 10, "vm_pu": 1.0518906919056101, "va_deg": -14.533564664803988, "is_violation": true, "violation_type": "overvoltage"}, {"bus_id": 11, "vm_pu": 1.057231194567899, "va_deg": -14.281085453043554, "is_violation": true, "violation_type": "overvoltage"}, {"bus_id": 12, "vm_pu": 1.0551555738165002, "va_deg": -14.600180443105234, "is_violation": true, "violation_type": "overvoltage"}, {"bus_id": 13, "vm_pu": 1.05098445193329, "va_deg": -14.656153044784348, "is_violation": true, "violation_type": "overvoltage"}, {"bus_id": 14, "vm_pu": 1.0364187258153368, "va_deg": -15.484610236318314, "is_violation": false, "violation_type": null}], "line_flows": [{"line_id": 0, "from_bus": 1, "to_bus": 2, "p_from_mw": 147.02911419136527, "q_from_mvar": -18.072109211772222, "loading_percent": 1.4116220581260828, "is_violation": false}, {"line_id": 1, "from_bus": 1, "to_bus": 5, "p_from_mw": 71.73834134202824, "q_from_mvar": 3.8897357958073453, "loading_percent": 0.6856801700425976, "is_violation": false}, {"line_id": 2, "from_bus": 2, "to_bus": 3, "p_from_mw": 67.81658526769043, "q_from_mvar": 4.121465894741861, "loading_percent": 0.6582676006378552, "is_violation": false}, {"line_id": 3, "from_bus": 2, "to_bus": 4, "p_from_mw": 53.42257132894501, "q_from_mvar": -1.4666037683947557, "loading_percent": 0.5165791773280879, "is_violation": false}, {"line_id": 4, "from_bus": 2, "to_bus": 5, "p_from_mw": 40.13175359722621, "q_from_mvar": 1.1451412917454151, "loading_percent": 0.3896368448588951, "is_violation": false}, {"line_id": 5, "from_bus": 3, "to_bus": 4, "p_from_mw": -20.483471514549052, "q_from_mvar": 2.6816530044908764, "loading_percent": 0.20847617835532312, "is_violation": false}, {"line_id": 6, "from_bus": 4, "to_bus": 5, "p_from_mw": -55.83032656727834, "q_from_mvar": 14.694536563275488, "loading_percent": 0.5724936978358405, "is_violation": false}, {"line_id": 7, "from_bus": 6, "to_bus": 11, "p_from_mw": 6.95803145514946, "q_from_mvar": 3.5707056609378194, "loading_percent": 0.07382942173874119, "is_violation": false}, {"line_id": 8, "from_bus": 6, "to_bus": 12, "p_from_mw": 7.751242729169351, "q_from_mvar": 2.533216324823076, "loading_percent": 0.07698186313010713, "is_violation": false}, {"line_id": 9, "from_bus": 6, "to_bus": 13, "p_from_mw": 17.179392026726287, "q_from_mvar": 7.00277686946708, "loading_percent": 0.1751329174412317, "is_violation": false}, {"line_id": 10, "from_bus": 9, "to_bus": 10, "p_from_mw": 5.836620135324171, "q_from_mvar": 4.314745133194633, "loading_percent": 0.06935670587825292, "is_violation": false}, {"line_id": 11, "from_bus": 9, "to_bus": 14, "p_from_mw": 9.71271369300693, "q_from_mvar": 3.595340713802791, "loading_percent": 0.09896419352245292, "is_violation": false}, {"line_id": 12, "from_bus": 10, "to_bus": 11, "p_from_mw": -3.2122510820526378, "q_from_mvar": -1.546923366643187, "loading_percent": 0.0342367938779441, "is_violation": false}, {"line_id": 13, "from_bus": 12, "to_bus": 13, "p_from_mw": 1.3395627258811187, "q_from_mvar": 0.7216078106444452, "loading_percent": 0.014565906308355511, "is_violation": false}, {"line_id": 14, "from_bus": 13, "to_bus": 14, "p_from_mw": 5.399424181496809, "q_from_mvar": 1.779489846284181, "loading_percent": 0.05463949120571383, "is_violation": false}, {"line_id": 100000, "from_bus": 4, "to_bus": 7, "p_from_mw": 28.143368410882697, "q_from_mvar": -9.59393505692784, "loading_percent": 0.2948525723605106, "is_violation": false}, {"line_id": 100001, "from_bus": 4, "to_bus": 9, "p_from_mw": 16.12437176313527, "q_from_mvar": -0.4617903734203188, "loading_percent": 0.1599620038218758, "is_violation": false}, {"line_id": 100002, "from_bus": 5, "to_bus": 6, "p_from_mw": 44.02109252961879, "q_from_mvar": 12.771164131522085, "loading_percent": 0.45384225887234325, "is_violation": false}, {"line_id": 100003, "from_bus": 7, "to_bus": 8, "p_from_mw": -5.1813588543616646e-14, "q_from_mvar": -16.70932295129911, "loading_percent": 0.15888377293715417, "is_violation": false}, {"line_id": 100004, "from_bus": 7, "to_bus": 9, "p_from_mw": 28.14336841051141, "q_from_mvar": 5.411058591574555, "loading_percent": 0.27250796552431933, "is_violation": false}], "total_generation_mw": 259.6073704789311, "total_load_mw": 247.74885550811788, "total_loss_mw": 11.858514975572978, "voltage_violations": [{"bus_id": 1, "vm_pu": 1.06, "va_deg": 0.0, "is_violation": true, "violation_type": "overvoltage"}, {"bus_id": 6, "vm_pu": 1.07, "va_deg": -13.75189614058688, "is_violation": true, "violation_type": "overvoltage"}, {"bus_id": 7, "vm_pu": 1.062292497163149, "va_deg": -12.770256076115013, "is_violation": true, "violation_type": "overvoltage"}, {"bus_id": 8, "vm_pu": 1.09, "va_deg": -12.770256076115007, "is_violation": true, "violation_type": "overvoltage"}, {"bus_id": 9, "vm_pu": 1.0570907106261187, "va_deg": -14.35015586045095, "is_violation": true, "violation_type": "overvoltage"}, {"bus_id": 10, "vm_pu": 1.0518906919056101, "va_deg": -14.533564664803988, "is_violation": true, "violation_type": "overvoltage"}, {"bus_id": 11, "vm_pu": 1.057231194567899, "va_deg": -14.281085453043554, "is_violation": true, "violation_type": "overvoltage"}, {"bus_id": 12, "vm_pu": 1.0551555738165002, "va_deg": -14.600180443105234, "is_violation": true, "violation_type": "overvoltage"}, {"bus_id": 13, "vm_pu": 1.05098445193329, "va_deg": -14.656153044784348, "is_violation": true, "violation_type": "overvoltage"}], "thermal_violations": [], "summary_text": "", "solver_backend": "pandapower", "llm_prompt": null, "llm_response": null}
[tool get_status]   (gate: not applied)
{"active_case": "case14", "network_info": {"case_name": "case14", "n_buses": 14, "n_generators": 5, "n_lines": 20, "n_loads": 11, "total_load_mw": 247.74885550811788, "total_gen_capacity_mw": 772.4000000000001}, "has_last_result": true, "last_result_summary": {"converged": true, "total_load_mw": 247.74885550811788, "total_generation_mw": 259.6073704789311, "total_loss_mw": 11.858514975572978, "n_voltage_violations": 9, "n_thermal_violations": 0, "solver_backend": "pandapower"}}

--- round 3 ---
[assistant final]   (11861 in / 306 out tokens, 13.1 s)
1. **Summary:** The case14 sequence was completed, the 3–4 line was reconnected, and the final AC power flow converged; no lines were loaded above 80%.

2. **Key numbers:**
   - Total load: **247.7489 MW**
   - Total generation: **259.6074 MW**
   - Total losses: **11.8585 MW**
   - Voltage range: **1.0100–1.0900 p.u.**

3. **Violations:**
   - **Lines above 80% loading: None**
   - No thermal violations were reported.
   - Overvoltage violations were reported at buses **1, 6, 7, 8, 9, 10, 11, 12, and 13**.

4. **Suggested next step:** Review generator voltage setpoints or reactive-power controls to reduce the reported overvoltages.
